Version 4
SHEET 1 1192 1104
WIRE -11776 -15040 -12928 -15040
WIRE -12112 -14944 -12112 -14976
WIRE -11904 -14944 -12112 -14944
WIRE -12112 -14928 -12112 -14944
WIRE -11904 -14864 -11904 -14944
WIRE -14064 -14832 -14176 -14832
WIRE -14000 -14832 -14064 -14832
WIRE -13440 -14832 -14000 -14832
WIRE -14176 -14816 -14176 -14832
WIRE -12112 -14816 -12112 -14848
WIRE -12064 -14816 -12112 -14816
WIRE -11984 -14816 -12000 -14816
WIRE -14000 -14784 -14000 -14832
WIRE -12928 -14768 -12928 -15040
WIRE -14176 -14752 -14176 -14816
WIRE -11904 -14752 -11904 -14784
WIRE -13792 -14736 -13952 -14736
WIRE -13696 -14736 -13712 -14736
WIRE -13552 -14736 -13568 -14736
WIRE -13376 -14736 -13472 -14736
WIRE -12432 -14704 -12480 -14704
WIRE -12320 -14704 -12368 -14704
WIRE -12112 -14704 -12112 -14816
WIRE -12080 -14704 -12112 -14704
WIRE -11984 -14704 -11984 -14816
WIRE -11984 -14704 -12000 -14704
WIRE -11968 -14704 -11984 -14704
WIRE -14000 -14688 -14000 -14704
WIRE -14000 -14688 -14096 -14688
WIRE -13440 -14656 -13440 -14832
WIRE -12928 -14656 -12928 -14688
WIRE -12784 -14656 -12928 -14656
WIRE -12112 -14656 -12112 -14704
WIRE -13696 -14640 -13696 -14736
WIRE -13568 -14640 -13568 -14736
WIRE -13568 -14640 -13696 -14640
WIRE -13472 -14640 -13568 -14640
WIRE -14176 -14624 -14176 -14672
WIRE -14176 -14624 -14208 -14624
WIRE -13376 -14624 -13376 -14736
WIRE -13376 -14624 -13408 -14624
WIRE -13312 -14624 -13376 -14624
WIRE -12928 -14624 -12928 -14656
WIRE -12784 -14624 -12848 -14624
WIRE -12480 -14624 -12480 -14704
WIRE -12480 -14624 -12592 -14624
WIRE -12432 -14624 -12480 -14624
WIRE -14208 -14608 -14208 -14624
WIRE -13472 -14608 -13504 -14608
WIRE -13312 -14608 -13312 -14624
WIRE -12320 -14608 -12320 -14704
WIRE -12320 -14608 -12368 -14608
WIRE -12288 -14608 -12320 -14608
WIRE -12176 -14608 -12208 -14608
WIRE -13568 -14592 -13568 -14640
WIRE -12560 -14592 -12592 -14592
WIRE -12432 -14592 -12464 -14592
WIRE -14176 -14576 -14176 -14624
WIRE -13504 -14576 -13504 -14608
WIRE -12848 -14576 -12848 -14624
WIRE -14064 -14560 -14064 -14832
WIRE -14016 -14560 -14064 -14560
WIRE -12464 -14560 -12464 -14592
WIRE -14016 -14544 -14016 -14560
WIRE -12112 -14544 -12112 -14560
WIRE -11904 -14544 -11904 -14656
WIRE -11904 -14544 -12112 -14544
WIRE -11776 -14544 -11776 -15040
WIRE -11776 -14544 -11904 -14544
WIRE -12112 -14528 -12112 -14544
WIRE -11984 -14528 -11984 -14704
WIRE -12928 -14512 -12928 -14544
WIRE -13792 -14496 -13968 -14496
WIRE -13696 -14496 -13696 -14640
WIRE -13696 -14496 -13712 -14496
WIRE -13312 -14480 -13312 -14528
WIRE -13232 -14432 -13264 -14432
WIRE -12112 -14416 -12112 -14448
WIRE -12048 -14416 -12112 -14416
WIRE -11984 -14416 -11984 -14448
WIRE -11984 -14416 -12048 -14416
WIRE -14176 -14400 -14176 -14496
WIRE -14096 -14400 -14096 -14688
WIRE -14096 -14400 -14176 -14400
WIRE -14016 -14400 -14016 -14464
WIRE -14016 -14400 -14096 -14400
WIRE -13440 -14400 -13440 -14592
WIRE -13440 -14400 -14016 -14400
WIRE -12048 -14384 -12048 -14416
WIRE -13312 -14352 -13312 -14400
WIRE -13312 -14240 -13312 -14272
WIRE -12320 -14208 -12320 -14608
WIRE -12224 -14208 -12320 -14208
WIRE -12112 -14208 -12144 -14208
WIRE -12112 -14176 -12112 -14208
WIRE -13568 -14112 -13568 -14512
WIRE -13072 -14112 -13568 -14112
WIRE -12112 -14064 -12112 -14096
WIRE -13424 -14032 -13568 -14032
WIRE -13424 -14016 -13424 -14032
WIRE -13232 -14016 -13232 -14432
WIRE -13568 -14000 -13568 -14032
WIRE -13472 -13952 -13504 -13952
WIRE -13328 -13952 -13376 -13952
WIRE -13280 -13952 -13328 -13952
WIRE -12560 -13952 -12560 -14592
WIRE -12560 -13952 -13184 -13952
WIRE -13328 -13920 -13328 -13952
WIRE -13504 -13808 -13504 -13952
WIRE -13504 -13808 -13552 -13808
WIRE -13456 -13808 -13504 -13808
WIRE -13328 -13808 -13328 -13840
WIRE -13328 -13808 -13392 -13808
WIRE -13504 -13680 -13504 -13808
WIRE -13440 -13680 -13504 -13680
WIRE -13328 -13664 -13328 -13808
WIRE -13328 -13664 -13376 -13664
WIRE -13280 -13664 -13328 -13664
WIRE -13168 -13664 -13216 -13664
WIRE -13440 -13648 -13472 -13648
WIRE -13168 -13632 -13168 -13664
WIRE -13472 -13616 -13472 -13648
WIRE -13168 -13536 -13168 -13552
WIRE -13072 -13536 -13072 -14112
WIRE -13072 -13536 -13168 -13536
WIRE -13168 -13520 -13168 -13536
WIRE -13168 -13408 -13168 -13440
FLAG -14208 -14608 0
FLAG -13504 -14576 0
FLAG -13312 -14240 0
FLAG -13568 -14000 0
FLAG -13472 -13616 0
FLAG -14176 -14816 V+
FLAG -14176 -14400 V-
FLAG -13632 -13808 V-
FLAG -13168 -13408 0
FLAG -12784 -14592 V-
FLAG -12592 -14656 V+
FLAG -12848 -14576 0
FLAG -12928 -14512 0
FLAG -12464 -14560 0
FLAG -12400 -14640 V+
FLAG -12400 -14576 V-
FLAG -12048 -14384 V-
FLAG -12112 -14976 V+
FLAG -12112 -14064 0
FLAG -12112 -14208 TRI-OUT
FLAG -13408 -13696 V+
FLAG -13408 -13632 V-
SYMBOL res -13696 -14752 R90
WINDOW 0 0 56 VBottom 2
WINDOW 3 32 56 VTop 2
SYMATTR InstName R1
SYMATTR Value 100K
SYMATTR SpiceLine tol=1 pwr=0.1
SYMBOL Pot&Sw\\potentiometer\ 2 -14016 -14800 R0
SYMATTR InstName U1
SYMATTR Value Rt=100K set=.125
SYMBOL Pot&Sw\\potentiometer\ 2 -14032 -14560 R0
SYMATTR InstName U2
SYMATTR Value Rt=100K set=.5
SYMBOL voltage -14176 -14768 R0
WINDOW 123 0 0 Left 2
WINDOW 39 24 124 Left 2
SYMATTR SpiceLine Rser=0
SYMATTR InstName V1
SYMATTR Value 5
SYMBOL voltage -14176 -14592 R0
WINDOW 123 0 0 Left 2
WINDOW 39 24 124 Left 2
SYMATTR SpiceLine Rser=0
SYMATTR InstName V2
SYMATTR Value 5
SYMBOL res -13696 -14512 R90
WINDOW 0 0 56 VBottom 2
WINDOW 3 32 56 VTop 2
SYMATTR InstName R2
SYMATTR Value 1Meg
SYMATTR SpiceLine tol=1 pwr=0.1
SYMBOL Robertugo\\3080 -12688 -14640 R0
SYMATTR InstName U4
SYMBOL res -13456 -14752 R90
WINDOW 0 0 56 VBottom 2
WINDOW 3 32 56 VTop 2
SYMATTR InstName R3
SYMATTR Value 6.04K
SYMATTR SpiceLine tol=1 pwr=0.1
SYMBOL res -13328 -14624 R0
SYMATTR InstName R4
SYMATTR Value 2.21K
SYMATTR SpiceLine tol=1 pwr=0.1
SYMBOL res -13328 -14368 R0
SYMATTR InstName R5
SYMATTR Value 825
SYMATTR SpiceLine tol=1 pwr=0.1
SYMBOL Pot&Sw\\potentiometer\ 2 -13328 -14496 R0
SYMATTR InstName U5
SYMATTR Value Rt=100 set=.5
SYMBOL pnp -13472 -14016 M90
SYMATTR InstName Q1
SYMATTR Value 2N3906
SYMBOL pnp -13184 -14016 R90
SYMATTR InstName Q2
SYMATTR Value 2N3906
SYMBOL res -13344 -13936 R0
SYMATTR InstName R6
SYMATTR Value 22.1K
SYMATTR SpiceLine tol=1 pwr=0.1
SYMBOL cap -13392 -13824 R90
WINDOW 0 0 32 VBottom 2
WINDOW 3 32 32 VTop 2
SYMATTR InstName C1
SYMATTR Value 1n
SYMBOL res -13536 -13824 R90
WINDOW 0 0 56 VBottom 2
WINDOW 3 32 56 VTop 2
SYMATTR InstName R7
SYMATTR Value 1Meg
SYMATTR SpiceLine tol=1 pwr=0.1
SYMBOL diode -13280 -13648 R270
WINDOW 0 32 32 VTop 2
WINDOW 3 0 32 VBottom 2
SYMATTR InstName D1
SYMBOL res -13584 -14608 R0
SYMATTR InstName R8
SYMATTR Value 1Meg
SYMATTR SpiceLine tol=1 pwr=0.1
SYMBOL res -12944 -14640 R0
SYMATTR InstName R9
SYMATTR Value 10K
SYMATTR SpiceLine tol=1 pwr=0.1
SYMBOL res -12944 -14784 R0
SYMATTR InstName R10
SYMATTR Value 100K
SYMATTR SpiceLine tol=1 pwr=0.1
SYMBOL cap -12368 -14720 R90
WINDOW 0 0 32 VBottom 2
WINDOW 3 32 32 VTop 2
SYMATTR InstName C2
SYMATTR Value 1n
SYMBOL res -12192 -14624 R90
WINDOW 0 0 56 VBottom 2
WINDOW 3 32 56 VTop 2
SYMATTR InstName R11
SYMATTR Value 26.7K
SYMATTR SpiceLine tol=1 pwr=0.1
SYMBOL npn -12176 -14656 R0
SYMATTR InstName Q3
SYMATTR Value 2N3904
SYMBOL npn -11968 -14752 R0
SYMATTR InstName Q4
SYMATTR Value 2N3904
SYMBOL res -12128 -14544 R0
SYMATTR InstName R12
SYMATTR Value 10K
SYMATTR SpiceLine tol=1 pwr=0.1
SYMBOL res -12128 -14944 R0
SYMATTR InstName R13
SYMATTR Value 20K
SYMATTR SpiceLine tol=1 pwr=0.1
SYMBOL res -11984 -14720 R90
WINDOW 0 0 56 VBottom 2
WINDOW 3 32 56 VTop 2
SYMATTR InstName R14
SYMATTR Value 18K
SYMATTR SpiceLine tol=1 pwr=0.1
SYMBOL cap -12000 -14832 R90
WINDOW 0 0 32 VBottom 2
WINDOW 3 32 32 VTop 2
SYMATTR InstName C3
SYMATTR Value 47p
SYMBOL res -12000 -14544 R0
SYMATTR InstName R15
SYMATTR Value 100K
SYMATTR SpiceLine tol=1 pwr=0.1
SYMBOL res -11920 -14880 R0
SYMATTR InstName R16
SYMATTR Value 5.1K
SYMATTR SpiceLine tol=1 pwr=0.1
SYMBOL res -12128 -14224 R90
WINDOW 0 0 56 VBottom 2
WINDOW 3 32 56 VTop 2
SYMATTR InstName R17
SYMATTR Value 1K
SYMATTR SpiceLine tol=1 pwr=0.1
SYMBOL res -12128 -14192 R0
SYMATTR InstName R18
SYMATTR Value 10K
SYMBOL Opamps\\LT118A -13408 -13664 R0
SYMATTR InstName U3
SYMBOL Opamps\\LT118A -13440 -14624 R0
SYMATTR InstName U6
SYMBOL Opamps\\LT118A -12400 -14608 R0
SYMATTR InstName U8
SYMBOL res -13184 -13648 R0
SYMATTR InstName R19
SYMATTR Value 50k
SYMBOL res -13184 -13536 R0
SYMATTR InstName R20
SYMATTR Value 50k
TEXT -13976 -14680 Left 2 ;COARSE
TEXT -13992 -14440 Left 2 ;FINE
TEXT -14232 -13496 Left 2 !.tran 100m startup uic
