Version 4
SHEET 1 880 736
WIRE -592 -192 -784 -192
WIRE -368 -192 -592 -192
WIRE -224 -192 -368 -192
WIRE 336 -192 -128 -192
WIRE 592 -192 336 -192
WIRE 592 -80 592 -192
WIRE -592 -64 -592 -192
WIRE -784 -32 -784 -192
WIRE -368 -16 -368 -192
WIRE -336 -16 -368 -16
WIRE -176 -16 -176 -128
WIRE -176 -16 -256 -16
WIRE -16 -16 -176 -16
WIRE 336 -16 336 -192
WIRE 336 -16 240 -16
WIRE -176 16 -176 -16
WIRE 336 16 336 -16
WIRE 592 48 592 0
WIRE -784 128 -784 48
WIRE -656 128 -784 128
WIRE -656 192 -656 128
WIRE -592 192 -592 0
WIRE -592 192 -656 192
WIRE -176 192 -176 80
WIRE -176 192 -592 192
WIRE 112 192 112 80
WIRE 112 192 -176 192
WIRE 336 192 336 80
WIRE 336 192 112 192
WIRE -656 240 -656 192
WIRE 672 240 624 240
WIRE 672 288 672 240
WIRE -784 320 -784 128
WIRE -176 320 -176 192
WIRE 112 320 112 192
WIRE -592 336 -592 192
WIRE 336 336 336 192
WIRE 624 352 624 240
WIRE -336 416 -368 416
WIRE -176 416 -176 384
WIRE -176 416 -256 416
WIRE -16 416 -176 416
WIRE 336 416 336 400
WIRE 336 416 240 416
WIRE -176 512 -176 416
WIRE -784 576 -784 400
WIRE -592 576 -592 400
WIRE -592 576 -784 576
WIRE -368 576 -368 416
WIRE -368 576 -592 576
WIRE -224 576 -368 576
WIRE 336 576 336 416
WIRE 336 576 -128 576
WIRE 624 576 624 432
WIRE 624 576 336 576
FLAG -656 240 0
FLAG 592 48 0
FLAG 672 288 0
DATAFLAG 336 -192 ""
DATAFLAG 336 576 ""
SYMBOL Vreg\\7805 112 -16 R0
SYMATTR InstName U1
SYMBOL pnp -128 -128 M270
SYMATTR InstName Q1
SYMATTR Value mjl1302a_x
SYMBOL cap -192 16 R0
SYMATTR InstName C2
SYMATTR Value 0.33µ
SYMATTR SpiceLine V=16
SYMBOL cap 320 16 R0
SYMATTR InstName C3
SYMATTR Value 0.1µF
SYMATTR SpiceLine V=16
SYMBOL res -240 -32 R90
WINDOW 0 0 56 VBottom 2
WINDOW 3 32 56 VTop 2
SYMATTR InstName R1
SYMATTR Value 3
SYMBOL polcap -608 -64 R0
WINDOW 3 24 56 Left 2
SYMATTR InstName C1
SYMATTR Value 4700µ
SYMATTR Description Capacitor
SYMATTR Type cap
SYMATTR SpiceLine V=16 Irms=1.56 Rser=0.045 Lser=0 mfg="Nichicon" pn="UPR1C472MRH" type="Al electrolytic"
SYMBOL polcap -608 336 R0
WINDOW 3 24 56 Left 2
SYMATTR InstName C4
SYMATTR Value 4700µ
SYMATTR Description Capacitor
SYMATTR Type cap
SYMATTR SpiceLine V=16 Irms=1.56 Rser=0.045 Lser=0 mfg="Nichicon" pn="UPR1C472MRH" type="Al electrolytic"
SYMBOL npn -128 512 R90
SYMATTR InstName Q2
SYMATTR Value mjl3281a_x
SYMBOL res -240 400 R90
WINDOW 0 0 56 VBottom 2
WINDOW 3 32 56 VTop 2
SYMATTR InstName R2
SYMATTR Value 3
SYMBOL cap -192 320 R0
SYMATTR InstName C5
SYMATTR Value 0.33µ
SYMATTR SpiceLine V=16
SYMBOL Vreg\\7905 112 416 M180
SYMATTR InstName U4
SYMBOL cap 320 336 R0
SYMATTR InstName C6
SYMATTR Value 0.1µF
SYMATTR SpiceLine V=16
SYMBOL voltage -784 -48 R0
WINDOW 123 0 0 Left 2
WINDOW 39 0 0 Left 2
SYMATTR InstName V1
SYMATTR Value 7.38
SYMBOL voltage -784 304 R0
WINDOW 0 24 96 Left 2
WINDOW 3 24 16 Left 2
WINDOW 123 0 0 Left 2
WINDOW 39 0 0 Left 2
SYMATTR InstName V2
SYMATTR Value 7.38
SYMBOL res 576 -96 R0
SYMATTR InstName R3
SYMATTR Value 2k
SYMBOL res 608 336 R0
SYMATTR InstName R4
SYMATTR Value 10k
TEXT -816 672 Left 2 !.op
